*SPEF "IEEE 1481.1999"
*DESIGN "map9v3"
*DATE "13:17:06 Tuesday June 11, 2019"
*VENDOR "unknown"
*PROGRAM "qrouter"
*VERSION "unknown"
*DESIGN_FLOW "qflow"
*DIVIDER /
*DELIMITER :
*BUS_DELIMITER <>
*T_UNIT 1 PS
*C_UNIT 1 FF
*R_UNIT 1 OHM
*L_UNIT 1 HENRY

*NAME_MAP
*1 _91_
*2 INVX1_1
*3 OAI21X1_22
*4 NAND3X1_2
*5 AOI21X1_12
*6 OAI21X1_15
*7 OAI21X1_13
*8 OAI21X1_12
*9 NAND3X1_12
*10 NAND2X1_1
*11 OAI21X1_4
*12 OAI21X1_9
*13 OAI21X1_10
*14 OAI21X1_7
*15 OAI21X1_8
*16 OAI21X1_6
*17 OAI21X1_11
*18 OAI21X1_5
*19 state[0]
*20 DFFSR_1
*21 AOI21X1_11
*22 INVX1_1
*23 AOI21X1_14
*24 AOI22X1_1
*25 OAI21X1_21
*26 NAND3X1_4
*27 OAI21X1_17
*28 OAI21X1_20
*29 OAI21X1_14
*30 OAI21X1_26
*31 NAND3X1_10
*32 OAI21X1_28
*33 _103_
*34 NAND3X1_2
*35 MUX2X1_2
*36 NOR2X1_4
*37 AOI21X1_1
*38 MUX2X1_1
*39 MUX2X1_5
*40 MUX2X1_4
*41 MUX2X1_6
*42 MUX2X1_7
*43 MUX2X1_3
*44 AOI21X1_2
*45 NOR2X1_5
*46 clock_bF_buf4
*47 CLKBUF1_1
*48 DFFSR_20
*49 DFFSR_18
*50 DFFSR_29
*51 DFFSR_30
*52 DFFSR_17
*53 DFFSR_26
*54 DFFSR_28
*55 clock_bF_buf3
*56 CLKBUF1_2
*57 DFFSR_16
*58 DFFSR_4
*59 DFFSR_32
*60 DFFSR_23
*61 DFFSR_31
*62 DFFSR_22
*63 DFFSR_21
*64 clock_bF_buf2
*65 CLKBUF1_3
*66 DFFSR_14
*67 DFFSR_11
*68 DFFSR_13
*69 DFFSR_10
*70 DFFSR_8
*71 DFFSR_9
*72 DFFSR_15
*73 _8__bF_buf4
*74 BUFX2_5
*75 DFFSR_25
*76 DFFSR_27
*77 DFFSR_28
*78 DFFSR_26
*79 DFFSR_17
*80 DFFSR_29
*81 DFFSR_30
*82 _8__bF_buf3
*83 BUFX2_6
*84 DFFSR_16
*85 DFFSR_4
*86 DFFSR_32
*87 DFFSR_31
*88 DFFSR_23
*89 DFFSR_22
*90 DFFSR_21
*91 _8__bF_buf2
*92 BUFX2_7
*93 DFFSR_13
*94 DFFSR_11
*95 DFFSR_14
*96 DFFSR_8
*97 DFFSR_9
*98 DFFSR_15
*99 DFFSR_10
*100 state[3]
*101 DFFSR_4
*102 OAI21X1_1
*103 NAND3X1_11
*104 NAND3X1_5
*105 AOI22X1_2
*106 OAI21X1_4
*107 INVX1_6
*108 OAI21X1_3
*109 clock_bF_buf1
*110 CLKBUF1_4
*111 DFFSR_7
*112 DFFSR_6
*113 DFFSR_24
*114 DFFSR_1
*115 DFFSR_33
*116 DFFSR_12
*117 clock_bF_buf0
*118 CLKBUF1_5
*119 DFFSR_2
*120 DFFSR_25
*121 DFFSR_27
*122 DFFSR_5
*123 DFFSR_3
*124 DFFSR_19
*125 _8__bF_buf1
*126 BUFX2_8
*127 DFFSR_7
*128 DFFSR_33
*129 DFFSR_12
*130 DFFSR_1
*131 DFFSR_24
*132 DFFSR_6
*133 _8__bF_buf0
*134 BUFX2_9
*135 DFFSR_19
*136 DFFSR_3
*137 DFFSR_20
*138 DFFSR_18
*139 DFFSR_2
*140 DFFSR_5
*141 clock
*142 CLKBUF1_4
*143 CLKBUF1_5
*144 CLKBUF1_1
*145 CLKBUF1_3
*146 CLKBUF1_2
*147 _102__bF_buf3
*148 BUFX2_1
*149 AOI21X1_5
*150 NAND3X1_2
*151 NAND3X1_3
*152 OAI21X1_8
*153 AOI21X1_7
*154 _102__bF_buf2
*155 BUFX2_2
*156 OAI21X1_6
*157 AOI21X1_4
*158 OAI21X1_5
*159 AOI21X1_10
*160 OAI21X1_11
*161 _102__bF_buf1
*162 BUFX2_3
*163 AOI21X1_9
*164 AOI21X1_8
*165 OAI21X1_30
*166 AND2X2_1
*167 NOR2X1_7
*168 _8_
*169 INVX1_39
*170 BUFX2_5
*171 BUFX2_7
*172 BUFX2_9
*173 BUFX2_6
*174 BUFX2_8
*175 _111_[4]
*176 DFFSR_12
*177 BUFX2_14
*178 OAI21X1_25
*179 NOR2X1_12
*180 INVX1_29
*181 NOR3X1_1
*182 _102_
*183 INVX1_6
*184 BUFX2_3
*185 BUFX2_4
*186 BUFX2_1
*187 BUFX2_2
*188 _102__bF_buf0
*189 BUFX2_4
*190 OAI21X1_7
*191 AOI21X1_6
*192 OAI21X1_9
*193 OAI21X1_10
*194 _111_[2]
*195 DFFSR_10
*196 BUFX2_12
*197 XOR2X1_1
*198 NOR2X1_1
*199 OAI21X1_19
*200 _111_[0]
*201 DFFSR_8
*202 NOR2X1_2
*203 BUFX2_10
*204 NOR2X1_7
*205 AND2X2_1
*206 _111_[5]
*207 DFFSR_13
*208 NOR3X1_1
*209 INVX1_31
*210 OAI21X1_25
*211 BUFX2_15
*212 _111_[6]
*213 DFFSR_14
*214 INVX1_35
*215 AOI22X1_2
*216 NOR3X1_1
*217 BUFX2_16
*218 _111_[7]
*219 DFFSR_15
*220 BUFX2_17
*221 OAI21X1_1
*222 INVX1_37
*223 OAI21X1_30
*224 _114_[0]
*225 DFFSR_16
*226 OAI21X1_4
*227 OAI21X1_11
*228 BUFX2_28
*229 NOR2X1_4
*230 _114_[3]
*231 DFFSR_19
*232 INVX1_12
*233 XNOR2X1_2
*234 OAI21X1_7
*235 BUFX2_31
*236 _114_[4]
*237 DFFSR_20
*238 OAI21X1_8
*239 BUFX2_32
*240 INVX1_14
*241 XNOR2X1_2
*242 _114_[5]
*243 DFFSR_21
*244 BUFX2_33
*245 INVX1_16
*246 OAI21X1_9
*247 XNOR2X1_1
*248 _39_
*249 NAND2X1_2
*250 INVX1_25
*251 NAND3X1_6
*252 AOI21X1_13
*253 NAND2X1_5
*254 _40_
*255 INVX1_25
*256 OAI21X1_18
*257 OAI21X1_16
*258 AOI21X1_12
*259 OAI21X1_14
*260 N[3]
*261 OAI21X1_16
*262 AOI21X1_12
*263 OAI21X1_18
*264 NOR2X1_10
*265 _55_
*266 NAND3X1_5
*267 AND2X2_2
*268 OAI21X1_25
*269 NOR2X1_12
*270 INVX1_30
*271 N[5]
*272 OAI21X1_24
*273 OAI21X1_21
*274 INVX1_28
*275 NOR2X1_13
*276 _66_
*277 NAND3X1_6
*278 NAND2X1_6
*279 OAI21X1_26
*280 OAI21X1_29
*281 INVX1_33
*282 _111_[3]
*283 DFFSR_11
*284 NOR2X1_1
*285 OAI21X1_19
*286 BUFX2_13
*287 _92_
*288 NOR2X1_1
*289 NAND3X1_5
*290 NAND3X1_1
*291 NAND2X1_7
*292 _111_[1]
*293 DFFSR_9
*294 BUFX2_11
*295 INVX1_26
*296 NOR2X1_2
*297 _93_
*298 NOR2X1_2
*299 NAND3X1_5
*300 NAND3X1_1
*301 NAND2X1_7
*302 state[2]
*303 DFFSR_3
*304 NAND3X1_2
*305 DFFSR_5
*306 INVX1_23
*307 _114_[1]
*308 DFFSR_17
*309 OAI21X1_5
*310 INVX1_8
*311 BUFX2_29
*312 _114_[2]
*313 DFFSR_18
*314 OAI21X1_6
*315 INVX1_10
*316 BUFX2_30
*317 _114_[6]
*318 DFFSR_22
*319 BUFX2_34
*320 INVX1_18
*321 OAI21X1_10
*322 _114_[7]
*323 DFFSR_23
*324 BUFX2_35
*325 XNOR2X1_1
*326 INVX1_20
*327 N[1]
*328 NOR2X1_8
*329 INVX1_24
*330 NAND2X1_2
*331 _36_
*332 NOR2X1_7
*333 OAI21X1_12
*334 NOR2X1_9
*335 NAND2X1_3
*336 _43_
*337 NAND2X1_3
*338 INVX1_27
*339 XOR2X1_1
*340 OAI21X1_19
*341 _51_
*342 NOR2X1_10
*343 NAND3X1_6
*344 AOI21X1_13
*345 NAND2X1_5
*346 _52_
*347 NAND2X1_5
*348 OAI21X1_21
*349 OAI21X1_24
*350 NAND3X1_4
*351 _60_
*352 INVX1_29
*353 NAND3X1_8
*354 NAND3X1_7
*355 NOR2X1_11
*356 _70_
*357 INVX1_31
*358 AOI21X1_14
*359 NAND3X1_8
*360 NAND3X1_7
*361 N[7]
*362 INVX1_32
*363 OAI21X1_26
*364 OAI21X1_29
*365 _95_
*366 NAND3X1_1
*367 OAI21X1_30
*368 OAI21X1_1
*369 state[1]
*370 DFFSR_2
*371 AND2X2_4
*372 INVX1_2
*373 state[4]
*374 DFFSR_5
*375 INVX1_3
*376 NAND3X1_3
*377 startbuf[0]
*378 DFFSR_6
*379 INVX1_4
*380 DFFSR_7
*381 _100_
*382 NOR2X1_3
*383 AND2X2_4
*384 OAI21X1_2
*385 _113_[1]
*386 DFFSR_25
*387 BUFX2_20
*388 INVX1_5
*389 _113_[2]
*390 DFFSR_26
*391 BUFX2_21
*392 INVX1_7
*393 _106_
*394 INVX1_8
*395 MUX2X1_1
*396 AOI21X1_10
*397 _113_[3]
*398 DFFSR_27
*399 INVX1_9
*400 BUFX2_22
*401 _108_
*402 INVX1_10
*403 MUX2X1_2
*404 AOI21X1_4
*405 _113_[4]
*406 DFFSR_28
*407 BUFX2_23
*408 INVX1_11
*409 _110_
*410 INVX1_12
*411 AOI21X1_5
*412 MUX2X1_3
*413 _113_[5]
*414 DFFSR_29
*415 BUFX2_24
*416 INVX1_13
*417 _10_
*418 INVX1_14
*419 MUX2X1_4
*420 AOI21X1_6
*421 _113_[6]
*422 DFFSR_30
*423 BUFX2_25
*424 INVX1_15
*425 _12_
*426 INVX1_16
*427 MUX2X1_5
*428 AOI21X1_7
*429 _113_[7]
*430 DFFSR_31
*431 BUFX2_26
*432 INVX1_17
*433 _14_
*434 INVX1_18
*435 MUX2X1_6
*436 AOI21X1_8
*437 _113_[8]
*438 DFFSR_32
*439 BUFX2_27
*440 INVX1_19
*441 _16_
*442 INVX1_20
*443 AOI21X1_9
*444 MUX2X1_7
*445 _113_[0]
*446 DFFSR_24
*447 BUFX2_19
*448 INVX1_21
*449 _19_
*450 XNOR2X1_1
*451 OAI21X1_3
*452 AOI21X1_3
*453 _20_
*454 XNOR2X1_2
*455 AOI21X1_3
*456 OAI21X1_3
*457 _112_
*458 DFFSR_33
*459 BUFX2_18
*460 INVX1_22
*461 N[2]
*462 NAND2X1_2
*463 NOR2X1_8
*464 _42_
*465 INVX1_26
*466 NAND2X1_3
*467 NOR2X1_9
*468 N[4]
*469 OAI21X1_18
*470 NOR2X1_10
*471 _61_
*472 INVX1_30
*473 NOR2X1_11
*474 NAND3X1_8
*475 _63_
*476 NOR2X1_12
*477 AOI21X1_14
*478 OAI21X1_22
*479 N[6]
*480 NOR2X1_13
*481 OAI21X1_24
*482 _72_
*483 INVX1_32
*484 NAND3X1_9
*485 OAI21X1_27
*486 _73_
*487 INVX1_33
*488 NAND3X1_9
*489 OAI21X1_27
*490 _80_
*491 NOR2X1_14
*492 AOI22X1_2
*493 NAND3X1_11
*494 N[8]
*495 NAND3X1_9
*496 INVX1_36
*497 _88_
*498 NAND3X1_11
*499 NAND3X1_12
*500 INVX1_38
*501 _94_
*502 NOR3X1_1
*503 NAND3X1_1
*504 _96_
*505 OAI21X1_1
*506 NAND2X1_1
*507 _7_
*508 NAND2X1_1
*509 DFFSR_4
*510 _97_
*511 INVX1_2
*512 OAI21X1_2
*513 _98_
*514 INVX1_3
*515 OAI21X1_2
*516 _99_
*517 INVX1_4
*518 NOR2X1_3
*519 startbuf[1]
*520 DFFSR_7
*521 NOR2X1_3
*522 _6_
*523 OAI21X1_2
*524 DFFSR_2
*525 _101_
*526 INVX1_5
*527 AOI21X1_1
*528 _104_
*529 NOR2X1_4
*530 AOI21X1_1
*531 _2_[1]
*532 AOI21X1_1
*533 DFFSR_25
*534 _105_
*535 INVX1_7
*536 MUX2X1_1
*537 _2_[2]
*538 MUX2X1_1
*539 DFFSR_26
*540 _107_
*541 INVX1_9
*542 MUX2X1_2
*543 _2_[3]
*544 MUX2X1_2
*545 DFFSR_27
*546 _109_
*547 INVX1_11
*548 MUX2X1_3
*549 _2_[4]
*550 MUX2X1_3
*551 DFFSR_28
*552 _9_
*553 INVX1_13
*554 MUX2X1_4
*555 _2_[5]
*556 MUX2X1_4
*557 DFFSR_29
*558 _11_
*559 INVX1_15
*560 MUX2X1_5
*561 _2_[6]
*562 MUX2X1_5
*563 DFFSR_30
*564 _13_
*565 INVX1_17
*566 MUX2X1_6
*567 _2_[7]
*568 MUX2X1_6
*569 DFFSR_31
*570 _15_
*571 INVX1_19
*572 MUX2X1_7
*573 _2_[8]
*574 MUX2X1_7
*575 DFFSR_32
*576 _17_
*577 INVX1_21
*578 AOI21X1_2
*579 N[0]
*580 NOR2X1_5
*581 _18_
*582 NOR2X1_5
*583 AOI21X1_2
*584 _2_[0]
*585 AOI21X1_2
*586 DFFSR_24
*587 _21_
*588 OAI21X1_3
*589 AOI21X1_3
*590 _22_
*591 AOI21X1_3
*592 NOR2X1_6
*593 _23_
*594 OAI21X1_4
*595 NOR2X1_6
*596 _3_[0]
*597 NOR2X1_6
*598 DFFSR_16
*599 _24_
*600 OAI21X1_5
*601 AOI21X1_4
*602 _3_[2]
*603 AOI21X1_4
*604 DFFSR_18
*605 _25_
*606 OAI21X1_6
*607 AOI21X1_5
*608 _3_[3]
*609 AOI21X1_5
*610 DFFSR_19
*611 _26_
*612 OAI21X1_7
*613 AOI21X1_6
*614 _3_[4]
*615 AOI21X1_6
*616 DFFSR_20
*617 _27_
*618 OAI21X1_8
*619 AOI21X1_7
*620 _3_[5]
*621 AOI21X1_7
*622 DFFSR_21
*623 _28_
*624 OAI21X1_9
*625 AOI21X1_8
*626 _3_[6]
*627 AOI21X1_8
*628 DFFSR_22
*629 _29_
*630 OAI21X1_10
*631 AOI21X1_9
*632 _3_[7]
*633 AOI21X1_9
*634 DFFSR_23
*635 _30_
*636 OAI21X1_11
*637 AOI21X1_10
*638 _3_[1]
*639 AOI21X1_10
*640 DFFSR_17
*641 _31_
*642 INVX1_22
*643 AOI21X1_11
*644 _32_
*645 INVX1_23
*646 NAND3X1_3
*647 _33_
*648 NAND3X1_3
*649 AOI21X1_11
*650 _1_
*651 AOI21X1_11
*652 DFFSR_33
*653 _34_
*654 INVX1_24
*655 OAI21X1_13
*656 _35_
*657 AND2X2_1
*658 OAI21X1_12
*659 _37_
*660 OAI21X1_12
*661 OAI21X1_13
*662 _0_[0]
*663 OAI21X1_13
*664 DFFSR_8
*665 _38_
*666 NOR2X1_8
*667 OAI21X1_14
*668 _41_
*669 OAI21X1_14
*670 NAND2X1_4
*671 _44_
*672 INVX1_27
*673 OAI21X1_15
*674 _45_
*675 NOR2X1_9
*676 OAI21X1_15
*677 _46_
*678 OAI21X1_15
*679 NAND2X1_4
*680 _0_[1]
*681 NAND2X1_4
*682 DFFSR_9
*683 _47_
*684 AOI21X1_12
*685 OAI21X1_16
*686 _48_
*687 OAI21X1_16
*688 OAI21X1_17
*689 _49_
*690 XOR2X1_1
*691 OAI21X1_17
*692 _0_[2]
*693 OAI21X1_17
*694 DFFSR_10
*695 _50_
*696 OAI21X1_18
*697 NAND3X1_4
*698 _53_
*699 NAND3X1_4
*700 OAI21X1_20
*701 _54_
*702 OAI21X1_19
*703 AND2X2_2
*704 _56_
*705 AND2X2_2
*706 OAI21X1_20
*707 _0_[3]
*708 OAI21X1_20
*709 DFFSR_11
*710 _57_
*711 INVX1_28
*712 AOI21X1_13
*713 _58_
*714 AOI21X1_13
*715 OAI21X1_23
*716 _59_
*717 OAI21X1_21
*718 OAI21X1_23
*719 _62_
*720 NOR2X1_11
*721 OAI21X1_22
*722 _64_
*723 OAI21X1_22
*724 OAI21X1_23
*725 _0_[4]
*726 OAI21X1_23
*727 DFFSR_12
*728 _65_
*729 NOR2X1_13
*730 NAND3X1_6
*731 _67_
*732 OAI21X1_24
*733 NAND2X1_6
*734 _68_
*735 NAND2X1_6
*736 AOI22X1_1
*737 _69_
*738 OAI21X1_25
*739 AOI22X1_1
*740 _71_
*741 AOI21X1_14
*742 AOI22X1_1
*743 _0_[5]
*744 AOI22X1_1
*745 DFFSR_13
*746 _74_
*747 OAI21X1_26
*748 INVX1_34
*749 _75_
*750 INVX1_34
*751 OAI21X1_27
*752 _76_
*753 OAI21X1_27
*754 OAI21X1_28
*755 _77_
*756 NAND2X1_7
*757 NOR2X1_14
*758 _78_
*759 INVX1_35
*760 NAND3X1_7
*761 _79_
*762 NAND3X1_7
*763 NOR2X1_14
*764 _81_
*765 NAND3X1_8
*766 AOI22X1_2
*767 _82_
*768 AOI22X1_2
*769 OAI21X1_28
*770 _0_[6]
*771 OAI21X1_28
*772 DFFSR_14
*773 _83_
*774 INVX1_36
*775 OAI21X1_29
*776 _84_
*777 OAI21X1_29
*778 NAND3X1_10
*779 _85_
*780 NAND3X1_9
*781 NAND3X1_10
*782 _86_
*783 NAND3X1_10
*784 AND2X2_3
*785 _87_
*786 INVX1_37
*787 NAND3X1_11
*788 _89_
*789 OAI21X1_30
*790 NAND3X1_12
*791 _90_
*792 NAND3X1_12
*793 AND2X2_3
*794 _0_[7]
*795 AND2X2_3
*796 DFFSR_15
*797 _4_
*798 AND2X2_4
*799 DFFSR_1
*800 _5_
*801 INVX1_38
*802 DFFSR_3
*803 reset
*804 INVX1_39
*805 counter[0]
*806 BUFX2_10
*807 counter[1]
*808 BUFX2_11
*809 counter[2]
*810 BUFX2_12
*811 counter[3]
*812 BUFX2_13
*813 counter[4]
*814 BUFX2_14
*815 counter[5]
*816 BUFX2_15
*817 counter[6]
*818 BUFX2_16
*819 counter[7]
*820 BUFX2_17
*821 done
*822 BUFX2_18
*823 dp[0]
*824 BUFX2_19
*825 dp[1]
*826 BUFX2_20
*827 dp[2]
*828 BUFX2_21
*829 dp[3]
*830 BUFX2_22
*831 dp[4]
*832 BUFX2_23
*833 dp[5]
*834 BUFX2_24
*835 dp[6]
*836 BUFX2_25
*837 dp[7]
*838 BUFX2_26
*839 dp[8]
*840 BUFX2_27
*841 sr[0]
*842 BUFX2_28
*843 sr[1]
*844 BUFX2_29
*845 sr[2]
*846 BUFX2_30
*847 sr[3]
*848 BUFX2_31
*849 sr[4]
*850 BUFX2_32
*851 sr[5]
*852 BUFX2_33
*853 sr[6]
*854 BUFX2_34
*855 sr[7]
*856 BUFX2_35
*857 start
*858 DFFSR_6

*PORTS
*141 I
*260 I
*271 I
*327 I
*361 I
*461 I
*468 I
*479 I
*494 I
*579 I
*803 I
*805 O
*807 O
*809 O
*811 O
*813 O
*815 O
*817 O
*819 O
*821 O
*823 O
*825 O
*827 O
*829 O
*831 O
*833 O
*835 O
*837 O
*839 O
*841 O
*843 O
*845 O
*847 O
*849 O
*851 O
*853 O
*855 O
*857 I

*D_NET *1 0.00476232
*CONN
*I *2:Y O *D INVX1
*I *3:C I *L 0.0180101
*I *4:B I *L 0.022204
*I *5:C I *L 0.02277
*I *6:C I *L 0.0180101
*I *7:A I *L 0.0265312
*I *8:C I *L 0.0180101
*I *9:A I *L 0.0222511
*I *10:A I *L 0.0177118
*I *11:C I *L 0.0180101
*I *12:C I *L 0.0180101
*I *13:C I *L 0.0180101
*I *14:C I *L 0.0180101
*I *15:C I *L 0.0180101
*I *16:C I *L 0.0180101
*I *17:C I *L 0.0180101
*I *18:C I *L 0.0180101
*CAP
1 1_1 2.016e-05
2 1_2 0.00014784
3 1_3 6.12e-05
4 1_4 0.00015552
5 1_5 0.00027648
6 1_6 5.376e-05
7 1_7 0.0003672
8 1_8 2.04e-05
9 1_9 0.00027072
10 1_10 8.16e-05
11 1_11 8.64e-05
12 1_12 0.00010824
13 1_13 0.00037824
14 1_14 2.04e-05
15 1_15 0.00014112
16 1_16 6.12e-05
17 1_17 0.0004812
18 1_18 2.04e-05
19 1_19 0.00022272
20 1_20 5.76e-05
21 1_21 0.0001836
22 1_22 2.04e-05
23 1_23 0.00032568
24 1_24 2.04e-05
25 1_25 0.00023736
26 1_26 8.736e-05
27 1_27 4.08e-05
28 1_28 0.00063408
29 1_29 0.00018024
*RES
1 *2:Y 1_1 0.56
2 1_1 1_2 4.10667
3 1_2 1_3 0.7
4 1_3 *3:C 0
5 1_2 1_4 2.98667
6 1_4 *4:B 0
7 1_1 1_5 2.48
8 1_5 1_6 1.49333
9 1_6 *5:C 0
10 1_5 1_7 4.2
11 1_7 1_8 0.233333
12 1_8 *6:C 0
13 1_8 1_9 4.85333
14 1_9 1_10 0.933333
15 1_10 1_11 0.56
16 1_11 *7:A 0
17 1_10 1_12 2.00667
18 1_12 *8:C 0
19 1_9 1_13 7.84
20 1_13 1_14 0.233333
21 1_14 *9:A 0
22 1_14 1_15 3.92
23 1_15 1_16 0.7
24 1_16 *10:A 0
25 1_15 1_17 5.83333
26 1_17 1_18 0.233333
27 1_18 *11:C 0
28 1_18 1_19 4.85333
29 1_19 *12:C 0
30 1_19 1_20 0.373333
31 1_20 *13:C 0
32 1_20 1_21 2.1
33 1_21 1_22 0.233333
34 1_22 *14:C 0
35 1_22 1_23 4.71333
36 1_23 1_24 0.233333
37 1_24 *15:C 0
38 1_24 1_25 3.59333
39 1_25 1_26 2.42667
40 1_26 1_27 0.466667
41 1_27 *16:C 0
42 1_26 1_28 9.05333
43 1_28 *17:C 0
44 1_25 1_29 1.80667
45 1_29 *18:C 0
*END
*D_NET *19 0.00210864
*CONN
*I *20:Q O *D DFFSR
*I *21:C I *L 0.02277
*I *22:A I *L 0.0134094
*I *23:C I *L 0.02277
*I *24:A I *L 0.0265618
*I *25:C I *L 0.0180101
*I *26:A I *L 0.0222511
*I *27:A I *L 0.0265312
*I *28:A I *L 0.0265312
*I *29:C I *L 0.0180101
*I *30:C I *L 0.0180101
*I *31:A I *L 0.0222511
*I *32:A I *L 0.0265312
*CAP
1 19_1 0.00014256
2 19_2 0.0002616
3 19_3 6.12e-05
4 19_4 2.04e-05
5 19_5 8.064e-05
6 19_6 8.4e-06
7 19_7 2.016e-05
8 19_8 8.088e-05
9 19_9 4.08e-05
10 19_10 0.0004164
11 19_11 5.376e-05
12 19_12 0.00010152
13 19_13 2.04e-05
14 19_14 3.36e-05
15 19_15 0.0001308
16 19_16 0.00014904
17 19_17 2.04e-05
18 19_18 0.00023664
19 19_19 2.04e-05
20 19_20 3.36e-05
21 19_21 0.00017544
*RES
1 *20:Q 19_1 1.96
2 19_1 *21:C 0
3 19_1 19_2 2.70667
4 19_2 19_3 0.7
5 19_3 19_4 0.233333
6 19_4 *22:A 0
7 19_4 19_5 2.24
8 19_5 *23:C 0
9 19_2 19_6 0.233333
10 19_6 19_7 0.56
11 19_7 *24:A 0
12 19_6 19_8 1.91333
13 19_8 19_9 0.466667
14 19_9 *25:C 0
15 19_8 19_10 4.9
16 19_10 19_11 1.49333
17 19_11 *26:A 0
18 19_10 19_12 1.82
19 19_12 19_13 0.233333
20 19_13 *27:A 0
21 19_13 19_14 0.933333
22 19_14 *28:A 0
23 19_13 19_15 1.63333
24 19_15 19_16 2.47333
25 19_16 19_17 0.233333
26 19_17 *29:C 0
27 19_17 19_18 2.70667
28 19_18 19_19 0.233333
29 19_19 *30:C 0
30 19_19 19_20 0.933333
31 19_20 *31:A 0
32 19_15 19_21 3.87333
33 19_21 *32:A 0
*END
*D_NET *33 0.00323568
*CONN
*I *34:Y O *D NAND3X1
*I *35:S I *L 0.0295792
*I *36:B I *L 0.0227534
*I *37:B I *L 0.0268633
*I *38:S I *L 0.0295792
*I *39:S I *L 0.0295792
*I *40:S I *L 0.0295792
*I *41:S I *L 0.0295792
*I *42:S I *L 0.0295792
*I *43:S I *L 0.0295792
*I *44:B I *L 0.0268633
*I *45:B I *L 0.0227534
*CAP
1 33_1 0.0005712
2 33_2 3.36e-05
3 33_3 0.0001308
4 33_4 0.00010752
5 33_5 0.000102
6 33_6 2.688e-05
7 33_7 8.16e-05
8 33_8 0.00010752
9 33_9 4.032e-05
10 33_10 0.0001224
11 33_11 0.00036432
12 33_12 2.04e-05
13 33_13 0.0002868
14 33_14 0
15 33_15 0.00040704
16 33_16 0
17 33_17 0.00014112
18 33_18 0.0002808
19 33_19 0.00036768
20 33_20 0
21 33_21 4.368e-05
*RES
1 *34:Y 33_1 6.53333
2 33_1 33_2 0.933333
3 33_2 *35:S 0
4 33_1 33_3 1.63333
5 33_3 33_4 2.98667
6 33_4 33_5 1.16667
7 33_5 *36:B 0
8 33_4 33_6 0.746667
9 33_6 33_7 0.933333
10 33_7 *37:B 0
11 33_6 33_8 2.98667
12 33_8 33_9 1.12
13 33_9 33_10 1.4
14 33_10 *38:S 0
15 33_9 33_11 8.12
16 33_11 33_12 0.233333
17 33_12 *39:S 0
18 33_12 33_13 2.63333
19 33_13 33_14 0
20 33_14 *40:S 0
21 33_13 33_15 3.10667
22 33_15 33_16 0
23 33_16 *41:S 0
24 33_15 33_17 3.92
25 33_17 *42:S 0
26 33_8 33_18 2.13333
27 33_18 *43:S 0
28 33_3 33_19 9.41333
29 33_19 33_20 0
30 33_20 *44:B 0
31 33_19 33_21 1.21333
32 33_21 *45:B 0
*END
*D_NET *46 0.00204672
*CONN
*I *47:Y O *D CLKBUF1
*I *48:CLK I *L 0.0134469
*I *49:CLK I *L 0.0134469
*I *50:CLK I *L 0.0134469
*I *51:CLK I *L 0.0134469
*I *52:CLK I *L 0.0134469
*I *53:CLK I *L 0.0134469
*I *54:CLK I *L 0.0134469
*CAP
1 46_1 6.096e-05
2 46_2 0.0001008
3 46_3 0
4 46_4 0.00042744
5 46_5 2.04e-05
6 46_6 0.00018288
7 46_7 0
8 46_8 0.0003264
9 46_9 0.0001224
10 46_10 6.048e-05
11 46_11 0
12 46_12 0.00026352
13 46_13 0.00048144
*RES
1 *47:Y 46_1 1.02667
2 46_1 46_2 2.8
3 46_2 46_3 0
4 46_3 *48:CLK 0
5 46_3 46_4 6.20667
6 46_4 46_5 0.233333
7 46_5 *49:CLK 0
8 46_5 46_6 3.08
9 46_6 46_7 0
10 46_7 *50:CLK 0
11 46_7 46_8 3.73333
12 46_8 46_9 1.4
13 46_9 *51:CLK 0
14 46_8 46_10 1.68
15 46_10 46_11 0
16 46_11 *52:CLK 0
17 46_10 46_12 5.32
18 46_12 *53:CLK 0
19 46_1 46_13 5.50667
20 46_13 *54:CLK 0
*END
*D_NET *55 0.00177288
*CONN
*I *56:Y O *D CLKBUF1
*I *57:CLK I *L 0.0134469
*I *58:CLK I *L 0.0134469
*I *59:CLK I *L 0.0134469
*I *60:CLK I *L 0.0134469
*I *61:CLK I *L 0.0134469
*I *62:CLK I *L 0.0134469
*I *63:CLK I *L 0.0134469
*CAP
1 55_1 0.00023016
2 55_2 0.0002232
3 55_3 8.16e-05
4 55_4 2.04e-05
5 55_5 0.00017544
6 55_6 0.00014112
7 55_7 9.504e-05
8 55_8 2.04e-05
9 55_9 0.00017544
10 55_10 0.00026328
11 55_11 2.04e-05
12 55_12 0.0003264
*RES
1 *56:Y 55_1 4.06
2 55_1 55_2 4.2
3 55_2 *57:CLK 0
4 55_1 55_3 0.933333
5 55_3 55_4 0.233333
6 55_4 *58:CLK 0
7 55_4 55_5 2.00667
8 55_5 *59:CLK 0
9 55_1 55_6 3.92
10 55_6 55_7 1.30667
11 55_7 55_8 0.233333
12 55_8 *60:CLK 0
13 55_8 55_9 2.00667
14 55_9 *61:CLK 0
15 55_6 55_10 2.84667
16 55_10 55_11 0.233333
17 55_11 *62:CLK 0
18 55_11 55_12 3.73333
19 55_12 *63:CLK 0
*END
*D_NET *64 0.00223344
*CONN
*I *65:Y O *D CLKBUF1
*I *66:CLK I *L 0.0134469
*I *67:CLK I *L 0.0134469
*I *68:CLK I *L 0.0134469
*I *69:CLK I *L 0.0134469
*I *70:CLK I *L 0.0134469
*I *71:CLK I *L 0.0134469
*I *72:CLK I *L 0.0134469
*CAP
1 64_1 4.704e-05
2 64_2 0.00016152
3 64_3 4.08e-05
4 64_4 2.04e-05
5 64_5 0.00015576
6 64_6 9.456e-05
7 64_7 0.00039984
8 64_8 2.04e-05
9 64_9 0.000168
10 64_10 0.000306
11 64_11 2.04e-05
12 64_12 0.00033768
13 64_13 0.00046104
*RES
1 *65:Y 64_1 1.30667
2 64_1 64_2 4.15333
3 64_2 64_3 0.466667
4 64_3 64_4 0.233333
5 64_4 *66:CLK 0
6 64_4 64_5 2.66
7 64_5 64_6 1.96
8 64_6 *67:CLK 0
9 64_5 64_7 4.57333
10 64_7 64_8 0.233333
11 64_8 *68:CLK 0
12 64_8 64_9 4.66667
13 64_9 *69:CLK 0
14 64_2 64_10 3.5
15 64_10 64_11 0.233333
16 64_11 *70:CLK 0
17 64_11 64_12 7.04667
18 64_12 *71:CLK 0
19 64_1 64_13 5.27333
20 64_13 *72:CLK 0
*END
*D_NET *73 0.00157992
*CONN
*I *74:Y O *D BUFX2
*I *75:R I *L 0.0357813
*I *76:R I *L 0.0357813
*I *77:R I *L 0.0357813
*I *78:R I *L 0.0357813
*I *79:R I *L 0.0357813
*I *80:R I *L 0.0357813
*I *81:R I *L 0.0357813
*CAP
1 73_1 6.768e-05
2 73_2 0
3 73_3 0.000204
4 73_4 2.04e-05
5 73_5 0.00029856
6 73_6 0.00017592
7 73_7 0.0001224
8 73_8 0.00014112
9 73_9 0.000102
10 73_10 0.00026496
11 73_11 0.00018288
*RES
1 *74:Y 73_1 1.21333
2 73_1 73_2 0
3 73_2 *75:R 0
4 73_2 73_3 2.33333
5 73_3 *76:R 0
6 73_2 73_4 0.233333
7 73_4 73_5 4.29333
8 73_5 *77:R 0
9 73_4 73_6 3.22
10 73_6 73_7 1.4
11 73_7 *78:R 0
12 73_6 73_8 3.92
13 73_8 73_9 1.16667
14 73_9 *79:R 0
15 73_9 73_10 3.36
16 73_10 *80:R 0
17 73_8 73_11 3.08
18 73_11 *81:R 0
*END
*D_NET *82 0.00190656
*CONN
*I *83:Y O *D BUFX2
*I *84:R I *L 0.0357813
*I *85:R I *L 0.0357813
*I *86:R I *L 0.0357813
*I *87:R I *L 0.0357813
*I *88:R I *L 0.0357813
*I *89:R I *L 0.0357813
*I *90:R I *L 0.0357813
*CAP
1 82_1 0.00021624
2 82_2 0.00051576
3 82_3 0.000204
4 82_4 2.04e-05
5 82_5 4.032e-05
6 82_6 0.000204
7 82_7 0.00046104
8 82_8 0.0002448
*RES
1 *83:Y 82_1 2.47333
2 82_1 *84:R 0
3 82_1 82_2 7.32667
4 82_2 *85:R 0
5 82_2 82_3 2.33333
6 82_3 82_4 0.233333
7 82_4 *86:R 0
8 82_4 82_5 1.12
9 82_5 *87:R 0
10 82_5 82_6 2.33333
11 82_6 *88:R 0
12 82_6 82_7 5.27333
13 82_7 *89:R 0
14 82_7 82_8 2.8
15 82_8 *90:R 0
*END
*D_NET *91 0.00162072
*CONN
*I *92:Y O *D BUFX2
*I *93:R I *L 0.0357813
*I *94:R I *L 0.0357813
*I *95:R I *L 0.0357813
*I *96:R I *L 0.0357813
*I *97:R I *L 0.0357813
*I *98:R I *L 0.0357813
*I *99:R I *L 0.0357813
*CAP
1 91_1 0.00020256
2 91_2 2.04e-05
3 91_3 0.0002448
4 91_4 0.000204
5 91_5 2.04e-05
6 91_6 0.0002448
7 91_7 2.04e-05
8 91_8 0.00032496
9 91_9 0.00026448
10 91_10 7.392e-05
*RES
1 *92:Y 91_1 4.29333
2 91_1 *93:R 0
3 91_1 91_2 0.233333
4 91_2 91_3 2.8
5 91_3 *94:R 0
6 91_3 91_4 2.33333
7 91_4 91_5 0.233333
8 91_5 *95:R 0
9 91_5 91_6 2.8
10 91_6 91_7 0.233333
11 91_7 *96:R 0
12 91_7 91_8 5.69333
13 91_8 *97:R 0
14 91_7 91_9 4.01333
15 91_9 *98:R 0
16 91_2 91_10 2.05333
17 91_10 *99:R 0
*END
*D_NET *100 0.0014508
*CONN
*I *101:Q O *D DFFSR
*I *102:C I *L 0.0180101
*I *103:A I *L 0.0222511
*I *104:A I *L 0.0222511
*I *105:A I *L 0.0265618
*I *106:A I *L 0.0265312
*I *107:A I *L 0.0134094
*I *108:C I *L 0.0180101
*CAP
1 100_1 4.032e-05
2 100_2 2.688e-05
3 100_3 8.4e-06
4 100_4 0.00011112
5 100_5 6.12e-05
6 100_6 0.0002844
7 100_7 2.04e-05
8 100_8 0.0002244
9 100_9 0.0003468
10 100_10 4.08e-05
11 100_11 6.048e-05
12 100_12 0
13 100_13 0.0002256
*RES
1 *101:Q 100_1 1.12
2 100_1 100_2 0.746667
3 100_2 100_3 0.233333
4 100_3 *102:C 0
5 100_2 100_4 2.75333
6 100_4 100_5 0.7
7 100_5 *103:A 0
8 100_4 100_6 4.9
9 100_6 100_7 0.233333
10 100_7 *104:A 0
11 100_7 100_8 2.56667
12 100_8 *105:A 0
13 100_1 100_9 3.96667
14 100_9 100_10 0.466667
15 100_10 *106:A 0
16 100_9 100_11 1.68
17 100_11 100_12 0
18 100_12 *107:A 0
19 100_12 100_13 1.86667
20 100_13 *108:C 0
*END
*D_NET *109 0.00114576
*CONN
*I *110:Y O *D CLKBUF1
*I *111:CLK I *L 0.0134469
*I *112:CLK I *L 0.0134469
*I *113:CLK I *L 0.0134469
*I *114:CLK I *L 0.0134469
*I *115:CLK I *L 0.0134469
*I *116:CLK I *L 0.0134469
*CAP
1 109_1 2.04e-05
2 109_2 0.0002856
3 109_3 2.04e-05
4 109_4 4.704e-05
5 109_5 0.0001224
6 109_6 0.00010752
7 109_7 0.0001308
8 109_8 9.48e-05
9 109_9 0.00014136
10 109_10 8.16e-05
11 109_11 9.384e-05
*RES
1 *110:Y 109_1 0.233333
2 109_1 109_2 3.26667
3 109_2 109_3 0.233333
4 109_3 *111:CLK 0
5 109_3 109_4 1.30667
6 109_4 109_5 1.4
7 109_5 *112:CLK 0
8 109_4 109_6 2.98667
9 109_6 *113:CLK 0
10 109_1 109_7 1.63333
11 109_7 109_8 1.63333
12 109_8 *114:CLK 0
13 109_7 109_9 3.59333
14 109_9 109_10 0.933333
15 109_10 *115:CLK 0
16 109_9 109_11 1.07333
17 109_11 *116:CLK 0
*END
*D_NET *117 0.0017172
*CONN
*I *118:Y O *D CLKBUF1
*I *119:CLK I *L 0.0134469
*I *120:CLK I *L 0.0134469
*I *121:CLK I *L 0.0134469
*I *122:CLK I *L 0.0134469
*I *123:CLK I *L 0.0134469
*I *124:CLK I *L 0.0134469
*CAP
1 117_1 0.0001692
2 117_2 2.016e-05
3 117_3 8.4e-06
4 117_4 0
5 117_5 0.00038712
6 117_6 2.04e-05
7 117_7 0.00025704
8 117_8 0.00017616
9 117_9 0.0004284
10 117_10 2.04e-05
11 117_11 0.00022992
*RES
1 *118:Y 117_1 3.03333
2 117_1 117_2 0.56
3 117_2 117_3 0.233333
4 117_3 117_4 0
5 117_4 *119:CLK 0
6 117_4 117_5 5.08667
7 117_5 117_6 0.233333
8 117_6 *120:CLK 0
9 117_6 117_7 4.80667
10 117_7 *121:CLK 0
11 117_3 117_8 2.89333
12 117_8 *122:CLK 0
13 117_1 117_9 4.9
14 117_9 117_10 0.233333
15 117_10 *123:CLK 0
16 117_10 117_11 4.38667
17 117_11 *124:CLK 0
*END
*D_NET *125 0.00122112
*CONN
*I *126:Y O *D BUFX2
*I *127:R I *L 0.0357813
*I *128:R I *L 0.0357813
*I *129:R I *L 0.0357813
*I *130:S I *L 0.0323255
*I *131:R I *L 0.0357813
*I *132:R I *L 0.0357813
*CAP
1 125_1 0.000312
2 125_2 2.04e-05
3 125_3 0.0002448
4 125_4 0.000204
5 125_5 2.04e-05
6 125_6 0.00018192
7 125_7 3.36e-05
8 125_8 0
9 125_9 0.000204
*RES
1 *126:Y 125_1 3.54667
2 125_1 *127:R 0
3 125_1 125_2 0.233333
4 125_2 125_3 2.8
5 125_3 *128:R 0
6 125_3 125_4 2.33333
7 125_4 125_5 0.233333
8 125_5 *129:R 0
9 125_5 125_6 4.38667
10 125_6 *130:S 0
11 125_2 125_7 0.933333
12 125_7 125_8 0
13 125_8 *131:R 0
14 125_8 125_9 2.33333
15 125_9 *132:R 0
*END
*D_NET *133 0.00120072
*CONN
*I *134:Y O *D BUFX2
*I *135:R I *L 0.0357813
*I *136:R I *L 0.0357813
*I *137:R I *L 0.0357813
*I *138:R I *L 0.0357813
*I *139:R I *L 0.0357813
*I *140:R I *L 0.0357813
*CAP
1 133_1 6.744e-05
2 133_2 8.16e-05
3 133_3 0.0001428
4 133_4 2.04e-05
5 133_5 0.00014112
6 133_6 0.0002448
7 133_7 0.0002448
8 133_8 0.000204
9 133_9 5.376e-05
*RES
1 *134:Y 133_1 1.54
2 133_1 133_2 0.933333
3 133_2 *135:R 0
4 133_1 133_3 1.63333
5 133_3 133_4 0.233333
6 133_4 *136:R 0
7 133_4 133_5 3.92
8 133_5 *137:R 0
9 133_5 133_6 2.8
10 133_6 *138:R 0
11 133_4 133_7 2.8
12 133_7 133_8 2.33333
13 133_8 *139:R 0
14 133_7 133_9 1.49333
15 133_9 *140:R 0
*END
*D_NET *141 0.00182544
*CONN
*P *141 O
*I *142:A I *L 0.0549205
*I *143:A I *L 0.0549205
*I *144:A I *L 0.0549205
*I *145:A I *L 0.0549205
*I *146:A I *L 0.0549205
*CAP
1 141_1 0.00062424
2 141_2 0
3 141_3 0.00033792
4 141_4 6.12e-05
5 141_5 0.000312
6 141_6 2.04e-05
7 141_7 0.00041208
8 141_8 5.76e-05
*RES
1 *141 141_1 7.14
2 141_1 141_2 0
3 141_2 *142:A 0
4 141_2 141_3 7.38667
5 141_3 141_4 0.7
6 141_4 *143:A 0
7 141_3 141_5 4.66667
8 141_5 141_6 0.233333
9 141_6 *144:A 0
10 141_6 141_7 4.24667
11 141_7 *145:A 0
12 141_7 141_8 0.373333
13 141_8 *146:A 0
*END
*D_NET *147 0.00185016
*CONN
*I *148:Y O *D BUFX2
*I *149:A I *L 0.0265613
*I *150:C I *L 0.0226301
*I *151:B I *L 0.022204
*I *152:B I *L 0.0270702
*I *153:A I *L 0.0265613
*CAP
1 147_1 0.00012528
2 147_2 2.04e-05
3 147_3 0.0002124
4 147_4 0.00022848
5 147_5 0
6 147_6 0.00088968
7 147_7 0.000252
8 147_8 4.08e-05
9 147_9 8.112e-05
*RES
1 *148:Y 147_1 1.58667
2 147_1 147_2 0.233333
3 147_2 *149:A 0
4 147_2 147_3 2.56667
5 147_3 147_4 6.34667
6 147_4 147_5 0
7 147_5 *150:C 0
8 147_4 147_6 11.7133
9 147_6 *151:B 0
10 147_3 147_7 7
11 147_7 147_8 0.466667
12 147_8 *152:B 0
13 147_7 147_9 1.58667
14 147_9 *153:A 0
*END
*D_NET *154 0.00076728
*CONN
*I *155:Y O *D BUFX2
*I *156:B I *L 0.0270702
*I *157:A I *L 0.0265613
*I *158:B I *L 0.0270702
*I *159:A I *L 0.0265613
*I *160:B I *L 0.0270702
*CAP
1 154_1 6.768e-05
2 154_2 0
3 154_3 0.00022416
4 154_4 2.04e-05
5 154_5 8.4e-06
6 154_6 4.032e-05
7 154_7 0.0003456
8 154_8 2.04e-05
9 154_9 4.032e-05
*RES
1 *155:Y 154_1 1.21333
2 154_1 154_2 0
3 154_2 *156:B 0
4 154_1 154_3 2.89333
5 154_3 154_4 0.233333
6 154_4 *157:A 0
7 154_4 154_5 0.233333
8 154_5 154_6 1.12
9 154_6 *158:B 0
10 154_5 154_7 5.6
11 154_7 154_8 0.233333
12 154_8 *159:A 0
13 154_8 154_9 1.12
14 154_9 *160:B 0
*END
*D_NET *161 0.00111384
*CONN
*I *162:Y O *D BUFX2
*I *163:A I *L 0.0265613
*I *164:A I *L 0.0265613
*I *165:A I *L 0.0265312
*I *166:A I *L 0.0180033
*I *167:B I *L 0.0227534
*CAP
1 161_1 8.4e-06
2 161_2 0.0001344
3 161_3 6.12e-05
4 161_4 9.48e-05
5 161_5 0.0003588
6 161_6 2.04e-05
7 161_7 0.00037824
8 161_8 5.76e-05
*RES
1 *162:Y 161_1 0.233333
2 161_1 161_2 3.73333
3 161_2 161_3 0.7
4 161_3 *163:A 0
5 161_2 161_4 1.63333
6 161_4 *164:A 0
7 161_1 161_5 6.3
8 161_5 161_6 0.233333
9 161_6 *165:A 0
10 161_6 161_7 7.84
11 161_7 *166:A 0
12 161_7 161_8 0.373333
13 161_8 *167:B 0
*END
*D_NET *168 0.00100896
*CONN
*I *169:Y O *D INVX1
*I *170:A I *L 0.0134147
*I *171:A I *L 0.0134147
*I *172:A I *L 0.0134147
*I *173:A I *L 0.0134147
*I *174:A I *L 0.0134147
*CAP
1 168_1 0
2 168_2 5.376e-05
3 168_3 4.92e-05
4 168_4 0.0004416
5 168_5 4.08e-05
6 168_6 5.76e-05
7 168_7 7.44e-05
8 168_8 0.0002916
*RES
1 *169:Y 168_1 0
2 168_1 168_2 1.49333
3 168_2 168_3 0.7
4 168_3 *170:A 0
5 168_2 168_4 4.46667
6 168_4 168_5 0.466667
7 168_5 *171:A 0
8 168_5 168_6 0.373333
9 168_6 *172:A 0
10 168_4 168_7 1.4
11 168_7 *173:A 0
12 168_1 168_8 4.43333
13 168_8 *174:A 0
*END
*D_NET *175 0.00113064
*CONN
*I *176:Q O *D DFFSR
*I *177:A I *L 0.0134147
*I *178:A I *L 0.0265312
*I *179:A I *L 0.0222369
*I *180:A I *L 0.0134094
*I *181:B I *L 0.0311174
*CAP
1 175_1 0.0001632
2 175_2 2.04e-05
3 175_3 0.00025584
4 175_4 0
5 175_5 9.072e-05
6 175_6 0
7 175_7 0.00021648
8 175_8 2.04e-05
9 175_9 0.0003636
*RES
1 *176:Q 175_1 1.86667
2 175_1 175_2 0.233333
3 175_2 *177:A 0
4 175_2 175_3 6.44
5 175_3 175_4 0
6 175_4 *178:A 0
7 175_3 175_5 2.52
8 175_5 175_6 0
9 175_6 *179:A 0
10 175_5 175_7 4.01333
11 175_7 175_8 0.233333
12 175_8 *180:A 0
13 175_8 175_9 3.87333
14 175_9 *181:B 0
*END
*D_NET *182 0.00127632
*CONN
*I *183:Y O *D INVX1
*I *184:A I *L 0.0134147
*I *185:A I *L 0.0134147
*I *186:A I *L 0.0134147
*I *187:A I *L 0.0134147
*CAP
1 182_1 0.000258
2 182_2 0.00024888
3 182_3 0.000144
4 182_4 0.00048144
5 182_5 0.000144
*RES
1 *183:Y 182_1 2.38
2 182_1 *184:A 0
3 182_1 182_2 2.84667
4 182_2 182_3 0.933333
5 182_3 *185:A 0
6 182_2 182_4 5.50667
7 182_4 *186:A 0
8 182_4 182_5 0.933333
9 182_5 *187:A 0
*END
*D_NET *188 0.00071184
*CONN
*I *189:Y O *D BUFX2
*I *190:B I *L 0.0270702
*I *191:A I *L 0.0265613
*I *192:B I *L 0.0270702
*I *193:B I *L 0.0270702
*CAP
1 188_1 0.00010128
2 188_2 1.344e-05
3 188_3 0
4 188_4 0.0002916
5 188_5 0.0002448
6 188_6 2.04e-05
7 188_7 4.032e-05
*RES
1 *189:Y 188_1 2.14667
2 188_1 188_2 0.373333
3 188_2 188_3 0
4 188_3 *190:B 0
5 188_3 188_4 4.43333
6 188_4 *191:A 0
7 188_1 188_5 2.8
8 188_5 188_6 0.233333
9 188_6 *192:B 0
10 188_6 188_7 1.12
11 188_7 *193:B 0
*END
*D_NET *194 0.00056424
*CONN
*I *195:Q O *D DFFSR
*I *196:A I *L 0.0134147
*I *197:B I *L 0.0524749
*I *198:B I *L 0.0227534
*I *199:A I *L 0.0265312
*CAP
1 194_1 0.00021864
2 194_2 5.76e-05
3 194_3 5.04e-05
4 194_4 0
5 194_5 0.000108
6 194_6 0.0001296
*RES
1 *195:Q 194_1 2.07333
2 194_1 194_2 0.373333
3 194_2 *196:A 0
4 194_1 194_3 1.4
5 194_3 194_4 0
6 194_4 *197:B 0
7 194_3 194_5 2.33333
8 194_5 *198:B 0